TLTK/Dynamic Thay Huy/Vi du minh hoa/Vd 02 - Power system frequency response/VN_wind.txt

  ITER       DELTAP      BUS         DELTAQ      BUS        DELTA/V/      BUS       DELTAANG      BUS
   0         0.0000(   223230   )    0.0010(   923012   )
                                                             0.00004(   923012   )   0.00000(   923012   )
   1         0.0000(   223230   )    0.0000(   923012   )


 Reached tolerance in 1 iterations

 Largest mismatch:     -0.00 MW      0.00 Mvar      0.00 MVA at bus 923012 [HOABINH_H2  15.750]
 System total absolute mismatch:                    0.01 MVA

 SWING BUS SUMMARY:
   BUS# X-- NAME --X BASKV      PGEN     PMAX    PMIN      QGEN     QMAX    QMIN
 113015 HAKHAU1     110.00      73.1    150.0     0.0      19.9     30.0   -30.0
 126047 THAMCAU1    110.00      -9.5*   150.0     0.0      11.7     30.0   -30.0
 213019 MAGUAN2     220.00     141.0    300.0     0.0      -4.6    100.0  -100.0
 216011 TANKIEU2    220.00     166.3    300.0     0.0     -50.2    100.0  -100.0
 923011 HOABINH_H1  15.750      59.2    240.0     0.0     124.2    170.2   -80.0

 Generator conversion completed using ZSORCE

 1795 loads converted during this step

 1795 of 1795 loads converted
 Ordering network...
 Diagonals = 4909   Off-diagonals = 7264   Maximum size = 11102

 4909 diagonal and 6673 off-diagonal elements
 Out of file data--switch to terminal input mode

 Generator models use:
  CONS        1-  5200
  STATES      1-  2191

 Excitation System models use:
  CONS     5201-  8526
  STATES   2192-  3231
  VARS        1-    21

 Turbine Governor models use:
  CONS     8527-  9294
  STATES   3232-  3487
  VARS       22-   149

 Wind Generator models use:
  CONS     9295-  9700
  STATES   3488-  3574
  VARS      150-   265
  ICONS       1-    29

 Wind Electrical models use:
  CONS     9701- 11005
  STATES   3575-  3748
  VARS      266-   526
  ICONS      30-   203

 Wind Mechanical models use:
  CONS    11006- 11150
  STATES   3749-  3864
  VARS      527-   613

 Wind Pitch models use:
  CONS    11151- 11440
  STATES   3865-  3951
  VARS      614-   642

 Wind Aerodynamic models use:
  CONS    11441- 11498
  VARS      643-   671

 Machine Other models use:
  CONS    11499- 11933
  STATES   3952-  4038
  VARS      672-   758
  ICONS     204-   232


 SUMMARY OF MODELS READ:

 GENS:  GENROU           GENSAL
         146              263

 EXSYS: IEEET2           SEXS             EXAC1            EXAC4
          14              303                7               26

        EXDC2            EXST1            EXPIC1           ESAC1A
           7               13                4                4

        ESST4B
          29

 GOVS:  HYGOV
          64

 USER:  USRMDL
         174

 NEXT AVAILABLE ADDRESSES ARE:
    CON  STATE    VAR   ICON
  11934   4039    759    233

 Only PSS/E supplied models in case. Compilation is not required

 9 Output channels have been added


 Next available addresses are:
   CHANNEL   VAR   ICON
       10    759    233

 8 Output channels have been added


 Next available addresses are:
   CHANNEL   VAR   ICON
       18    759    233
   1  0.43     960696 [TD_HMUN     6.0000]    -0.4316E-04    -0.5434E-06

 Model HYGOV Bus 917021 [LAICHAU_H1  18.000] Machine "1 " :
     initialized out of limit(s) %%

     PTI INTERACTIVE POWER SYSTEM SIMULATOR--PSS(R)E     WED, NOV 03 2021  16:39
 2016 - DRY SEASON - LOW LOAD
 NORMAL OPERATION

 INITIAL CONDITION LOAD FLOW USED 1 ITERATIONS

 ----------------------------- MACHINE INITIAL CONDITIONS -----------------------------
   BUS# X-- NAME --X BASKV ID  ETERM   EFD    POWER    VARS   P.F.  ANGLE   ID     IQ
      2 PHULAC-DG   22.000 1  1.0950 0.0000   50.00    1.56 0.9995  34.53 0.0143 0.4566
      3 PHUOCTHE-DG 22.000 1  1.1000 0.0000   28.00    2.97 0.9944  34.90 0.0270 0.2545
      4 HOAMINH-DG  22.000 1  1.0950 0.0000   14.50    0.40 0.9996  33.16 0.0037 0.1324
      5 PHANRITHANH-22.000 1  1.0980 0.0000   30.00    1.39 0.9989  33.15 0.0127 0.2732
      6 HOATHANG1.1-22.000 1  1.0900 0.0000   20.00   -1.73 0.9963  30.63-0.0159 0.1835
      7 HOATHANG1.2-22.000 1  1.0950 0.0000   30.00    0.82 0.9996  33.58 0.0075 0.2740
      9 HOATHANG2-DG22.000 1  1.0900 0.0000   40.00    1.61 0.9992  34.44 0.0148 0.3670
     10 HOATHANG3-DG22.000 1  1.1000 0.0000   32.00   -6.35 0.9809  35.82-0.0577 0.2909
     12 HONGPHONG1-D22.000 1  1.1000 0.0000   40.00   -2.72 0.9977  32.93-0.0248 0.3636
     13 HONGPHONG2-D22.000 1  1.1000 0.0000   20.00   -1.70 0.9964  33.50-0.0155 0.1818
     14 THIENNGHIEP-22.000 1  1.1000 0.0000   40.00   -0.33 1.0000  38.80-0.0030 0.3636
     15 TIENTHANH1-D22.000 1  1.0700 0.0000   20.00   -0.28 0.9999  34.70-0.0026 0.1869
     16 TIENTHANH2-D22.000 1  1.0700 0.0000   15.00   -0.67 0.9990  33.08-0.0063 0.1402
     18 HAMCUONG1-DG22.000 1  1.0750 0.0000   15.00   -0.12 1.0000  33.30-0.0012 0.1395
     19 HAMCUONG2-DG22.000 1  1.0700 0.0000   20.00   -0.47 0.9997  34.90-0.0044 0.1869
     20 HAMKIEM1-DG 22.000 1  1.0750 0.0000   15.00   -0.22 0.9999  33.39-0.0020 0.1395
     21 HAMKIEM2-DG 22.000 1  1.0750 0.0000   15.00   -0.27 0.9998  33.45-0.0025 0.1395
     48 NINHTHUAN_G122.000 1  1.0950 0.0000   12.00    0.07 1.0000  31.28 0.0006 0.1096
     48 NINHTHUAN_G122.000 2  1.0950 0.0000   12.00    0.07 1.0000  31.28 0.0006 0.1096
     48 NINHTHUAN_G122.000 3  1.0950 0.0000   12.00    0.07 1.0000  31.28 0.0006 0.1096
     48 NINHTHUAN_G122.000 4  1.0950 0.0000   12.00    0.07 1.0000  31.28 0.0006 0.1096
     50 NINHTHUAN_G322.000 1  1.0650 0.0000   20.00   -0.35 0.9998  34.09-0.0033 0.1878
     50 NINHTHUAN_G322.000 2  1.0650 0.0000   20.00   -0.35 0.9998  34.09-0.0033 0.1878
     50 NINHTHUAN_G322.000 3  1.0650 0.0000   20.00   -0.35 0.9998  34.09-0.0033 0.1878
     50 NINHTHUAN_G322.000 4  1.0650 0.0000   20.00   -0.35 0.9998  34.09-0.0033 0.1878
     50 NINHTHUAN_G322.000 5  1.0650 0.0000   20.00   -0.35 0.9998  34.09-0.0033 0.1878
     54 NINHTHUAN_G422.000 1  1.1000 0.0000   20.00    0.74 0.9993  31.42 0.0067 0.1818
     54 NINHTHUAN_G422.000 2  1.1000 0.0000   20.00    0.74 0.9993  31.42 0.0067 0.1818
     54 NINHTHUAN_G422.000 3  1.1000 0.0000   20.00    0.74 0.9993  31.42 0.0067 0.1818
 113015 HAKHAU1     110.00 1  1.0300 1.3256   73.10   19.91 0.9649  13.41 0.1763 0.3228
 126047 THAMCAU1    110.00 1  1.0500 1.2624   -9.55   11.74-0.6311  -1.77 0.0573-0.0437
 213019 MAGUAN2     220.00 1  1.0500 1.2226  141.05   -4.62 0.9995  13.42 0.0672 0.3292
 216011 TANKIEU2    220.00 1  1.0600 1.1259  166.29  -50.21 0.9573  16.62-0.0013 0.4097
 912011 NADUONG_S1  6.3000 1  1.0300 2.4758   50.04   25.79 0.8889  37.30 0.7526 0.4454
 912012 NADUONG_S2  6.3000 1  1.0300 2.4758   50.04   25.79 0.8889  37.30 0.7525 0.4454
 914011 THACBA_H1   10.500 1  1.0000 2.7211    0.00   33.26 0.0000 -13.15 0.7826 0.0000
 915001 TUYENQUAN_H113.800 1  1.0000 1.1194    0.00    2.08 0.0000  -4.76 0.0155 0.0000
 915011 CHIEMHOA_H1 10.500 1  1.0000 1.7839    0.00    5.88 0.0000  -6.87 0.3304 0.0000
 916031 NALE_H1     11.000 1  1.0000 1.2439    0.00    1.58 0.0000  -6.50 0.0298 0.0000
 916424 MUONGHUM_1  10.500 1  1.1000 2.5155   16.00    7.95 0.8956  23.04 0.6487 0.5692
 916443 NGOIPHAT_H1 10.500 1  1.0000 1.1593    0.00   -0.59 0.0000  -4.06-0.0210-0.0000
 916451 TATHANG_H1  10.500 1  1.0000 0.8084    0.00   -8.38 0.0000  -7.22-0.2376-0.0000
 916453 NAMPANG_H1  10.500 1  1.0000 1.2862    0.00    1.16 0.0000  -6.93 0.0548 0.0000
 916456 SUPAN_H1    10.500 1  1.0000 2.0442    0.00    9.82 0.0000  -4.79 0.4635 0.0000
 917011 BANCHAT_H1  13.800 1  1.0000 0.8486    0.00  -28.11 0.0000   2.02-0.2044-0.0000
 917021 LAICHAU_H1  18.000 1  1.0000 1.0034    0.00  -34.61 0.0000   3.62-0.0780-0.0000
 917731 NAMKHOA3_H1 6.0000 1  1.0100 1.5181   11.01   -0.64 0.9983  41.48 0.5280 0.8142
 919011 SONLA_H1    18.000 1  1.0000 1.3341  300.00   15.76 0.9986  35.27 0.3278 0.5919
 919012 SONLA_H2    18.000 1  1.0000 1.2130  200.00    9.10 0.9990  25.62 0.1600 0.4216
 919021 NAMCHIEN1_H113.800 1  1.0500 1.1118   50.00  -14.81 0.9588  23.12 0.0088 0.4306
 919307 SUOISAP_H1  10.500 1  1.0000 0.7454    0.00   -2.26 0.0000  -1.02-0.1737-0.0000
 921012 VIETTR2I4_C223.000 1  1.0000 2.0319    0.00   36.75 0.0000  -9.95 0.3675 0.0000
 922011 CAONGAN_S1  10.500 1  1.0300 1.6898   50.00   -4.56 0.9959  44.80 0.4704 0.5460
 922012 CAONGAN_S2  10.500 1  1.0300 1.6898   50.00   -4.56 0.9959  44.80 0.4704 0.5460
 923011 HOABINH_H1  15.750 1  1.0300 1.7550   59.17  124.23 0.4300   6.66 0.4736 0.1613
 923012 HOABINH_H2  15.750 1  0.9714 0.9653   90.00  -31.63 0.9434  17.06-0.0200 0.3673
 924001 SONDONG_S1  10.500 1  1.0200 2.5116   90.00   36.90 0.9252  49.87 0.6432 0.3527
 924002 SONDONG_S2  10.500 2  1.0200 2.5116   90.00   36.90 0.9252  49.87 0.6432 0.3527
 926015 UONGBI_S5   6.3000 1  1.0200 2.1643   50.00   20.37 0.9261  40.23 0.6083 0.4720
 926016 UONGBI_S6   6.3000 1  1.0000 1.8752   50.00    7.94 0.9876  46.24 0.5200 0.5214
 926020 UONGBIMR_S2 19.000 1  1.0000 1.8173  250.00   26.57 0.9944  61.89 0.5473 0.4447
 926021 UONGBIMR_S1 19.000 1  1.0000 1.8173  250.00   26.57 0.9944  61.89 0.5473 0.4447
 926031 CAMPHA1_S1  20.000 1  1.0000 1.5852  250.00   -4.60 0.9998  61.67 0.4406 0.4434
 926032 CAMPHA1_S2  20.000 1  1.0000 1.5852  250.00   -4.60 0.9998  61.67 0.4406 0.4434
 926041 QUANGNIN1_S120.000 1  1.0000 1.4894  150.00   29.53 0.9812  44.16 0.2903 0.3214
 926042 QUANGNIN1_S220.000 1  1.0000 1.6034  150.00   51.83 0.9452  39.97 0.3324 0.3027
 926051 MAOKHE_S1   15.000 1  1.0000 2.0541  200.00   18.07 0.9959  64.36 0.6328 0.4083
 926052 MAOKHE_S2   15.000 1  1.0000 2.0541  200.00   18.07 0.9959  64.36 0.6328 0.4083
 926071 QUANGNIN2_S119.000 1  1.0000 1.8835  200.00   79.08 0.9299  43.93 0.4977 0.3516
 926072 QUANGNIN2_S219.000 2  1.0000 2.0601  250.00   82.26 0.9499  50.55 0.6261 0.4051
 926081 MONGDUON1_S119.000 1  1.0300 2.2025  400.00   52.05 0.9916  57.55 0.5320 0.4003
 926091 MONGDUON2_S123.000 1  1.0300 1.7427  300.00   45.04 0.9889  45.04 0.2829 0.3074
 927021 HAIPHONG1_S121.000 1  1.0000 1.9534  250.00   58.47 0.9737  56.61 0.5901 0.4217
 927022 HAIPHONG1_S221.000 1  1.0000 1.9534  250.00   58.47 0.9737  56.61 0.5901 0.4217
 927031 HAIPHONG2_S119.000 1  1.0000 2.2439  250.00  117.91 0.9044  50.86 0.6827 0.3834
 928011 PHALAI1_S1  10.500 1  1.0000 2.2303  100.08   21.36 0.9780  53.80 0.6165 0.3732
 928012 PHALAI1_S2  10.500 1  1.0000 2.2254  100.08   20.99 0.9787  53.91 0.6156 0.3737
 928013 PHALAI1_S3  10.500 1  1.0000 2.1801  100.08   17.58 0.9849  57.58 0.6074 0.3783
 928014 PHALAI1_S4  10.500 1  1.0000 2.0339  100.08    5.71 0.9984  62.18 0.5853 0.3946
 928021 PHALAI2_S1  19.000 1  1.0000 1.6768  250.00   20.01 0.9968  53.26 0.4683 0.4264
 928022 PHALAI2_S2  19.000 1  1.0000 1.6766  250.00   19.97 0.9968  53.27 0.4682 0.4264
 933011 NINHBINH_S1 6.3000 1  1.0000 2.0169   25.00    5.14 0.9795  47.66 0.6870 0.4440
 933012 NINHBINH_S2 6.3000 1  1.0000 2.3485   25.00   14.60 0.8636  36.27 0.8379 0.3986
 933013 NINHBINH_S3 6.3000 1  1.0000 2.3453   25.00   14.54 0.8645  36.34 0.8366 0.3989
 933014 NINHBINH_S4 6.3000 1  1.0000 2.0301   25.00    5.41 0.9774  47.30 0.6902 0.4423
 936001 BATHUOC2_H1 13.800 1  1.0000 0.8238    0.00   -8.85 0.0000  -4.58-0.1881-0.0000
 936011 CUADAT_H1   13.800 1  1.0400 0.8287    0.00  -13.68 0.0000  -3.30-0.2306-0.0000
 936021 NGHISON1_S1 21.000 1  1.0000 1.8240  250.00   32.43 0.9917  61.76 0.5494 0.4379
 936022 NGHISON1_S2 21.000 1  1.0000 1.8240  250.00   32.43 0.9917  61.76 0.5494 0.4379
 937001 BANVE_H1    15.000 1  1.0000 1.1153    0.00    2.31 0.0000   6.93 0.0123 0.0000
 937011 NHANHAC_H1  10.500 1  1.0500 1.7483   15.00    1.95 0.9917  52.06 0.5786 0.6898
 937021 KHEBO_H1    13.800 1  1.0300 1.4989    0.00   13.86 0.0000   6.84 0.2289 0.0000
 937041 HUANA_H1    13.800 1  1.0300 1.7577    0.00   40.71 0.0000   0.37 0.3733 0.0000
 937061 CHIKHE_H1   10.500 1  1.0300 1.2749   41.00   -7.43 0.9840  58.04 0.3462 0.7312
 938011 VUNGANG1_S1 26.000 1  1.0000 2.3503  550.00   58.86 0.9943  74.32 0.6653 0.4140
 938012 VUNGANG1_S2 26.000 1  1.0000 2.3503  550.00   58.86 0.9943  74.32 0.6653 0.4140
 938021 FORMOSAHT_S113.800 1  1.0300 2.1109   50.00   39.50 0.7847  34.69 0.2938 0.1967
 938022 FORMOSAHT_S213.800 1  1.0300 1.2140   50.00  -18.75 0.9363  48.09 0.0543 0.2912
 938024 FORMOSAHT_G413.800 1  1.0300 2.1025   30.00   31.61 0.6884  30.41 0.2764 0.1560
 938371 HUONGSON1_H110.000 1  1.0000 1.9196   16.01    6.10 0.9344  31.99 0.5971 0.5777
 951011 QUANGTRI_H1 10.500 1  1.0300 1.9295    0.00   17.97 0.0000  -0.02 0.4634 0.0000
 952001 HUONGDIEN_H110.500 1  1.0000 1.3892    0.00    6.57 0.0000   1.41 0.2052 0.0000
 952011 ALUOI_H1    13.800 1  1.0200 1.8837   85.00   27.81 0.9504  45.15 0.6403 0.5990
 952012 ALUOI_H2    13.800 1  1.0200 1.8837   85.00   27.81 0.9504  45.15 0.6403 0.5990
 952021 BINHDIEN_H1 10.500 1  1.0000 2.0196   18.01    9.63 0.8819  31.96 0.6045 0.5074
 952022 BINHDIEN_H2 10.500 1  1.0000 2.0196   18.01    9.63 0.8819  31.96 0.6045 0.5074
 954071 DAKMI4_H1   13.800 1  1.0000 1.1918    0.00    6.39 0.0000   9.90 0.0734 0.0000
 954073 DAKMI4B_H1  10.500 1  1.0000 1.0111    0.00   -1.12 0.0000   9.47-0.0455-0.0000
 954075 DAKMI4C_H1  10.500 1  1.0000 1.8843    9.00   -0.59 0.9979  76.08 0.7224 0.4510
 954091 SONGBUNG5_H110.500 1  1.0000 1.1901    0.00    2.26 0.0000   9.99 0.0784 0.0000
 956011 DONGNAI3_H1 15.750 1  1.0000 1.1636   50.00   -3.09 0.9981  42.56 0.1313 0.4545
 956022 BUONTUASA_H213.800 1  1.0000 1.2875   35.03   -1.61 0.9989  55.45 0.3210 0.6141
 956031 DONGNAI4_H1 15.750 1  1.0000 1.1880  100.00   -3.65 0.9993  44.33 0.1585 0.4746
 956041 DAKRTIH_H1  13.800 1  1.0000 1.0433    0.00   -1.08 0.0000  19.36-0.0224-0.0000
 956043 DAKRTIH_H3  13.800 1  1.0000 1.0434    0.00   -0.81 0.0000  19.36-0.0223-0.0000
 956051 DONGNAI2_H1 13.800 1  1.0000 1.0121    0.00   -2.92 0.0000  23.45-0.0709-0.0000
 957001 BUONKUOP_H1 13.800 1  1.0000 1.0902   50.00   -6.91 0.9906  34.20 0.0275 0.3047
 957011 SEREPOK3_H1 13.800 1  1.0000 1.1298   50.00   -2.57 0.9987  41.03 0.0994 0.3736
 957021 SEREPOK4_H1 10.500 1  1.0000 1.4524   40.00    0.11 1.0000  61.32 0.4873 0.6964
 958011 VINHSON_H1  13.800 1  1.0000 1.5796   33.00    2.97 0.9960  43.44 0.4752 0.6785
 959001 PLEIKRONG_H113.800 1  1.0000 1.2846   45.03   -4.58 0.9949  67.67 0.3618 0.6792
 959765 TD_DAKDOA   22.000 1  1.0500 1.3679    7.00   -3.39 0.9000  92.53 0.5355 0.5117
 959765 TD_DAKDOA   22.000 2  1.0500 1.3679    7.00   -3.39 0.9000  92.53 0.5355 0.5117
 959785 TD_DAKPSI4  10.500 1  1.0500 1.5560   10.00   -3.06 0.9561  88.01 0.5854 0.4944
 959819 TD_DAKNE    6.0000 1  1.0000 1.5893    2.70    0.76 0.9630  50.89 0.4620 0.5271
 959819 TD_DAKNE    6.0000 2  1.0000 1.5893    2.70    0.76 0.9630  50.89 0.4620 0.5271
 959819 TD_DAKNE    6.0000 3  1.0000 1.5893    2.70    0.76 0.9630  50.89 0.4620 0.5271
 960011 YALI_H1     15.750 1  1.0000 1.8540  150.11   58.09 0.9326  48.49 0.5577 0.5165
 960021 SESAN3_H1   13.800 1  1.0000 1.1964  100.00   -9.21 0.9958  49.00 0.2063 0.5726
 960031 SESAN3A_H1  10.500 1  1.0000 1.2604   50.00   -4.61 0.9958  54.24 0.3112 0.6756
 960041 ANKHE_H1    13.800 1  1.0000 1.7749   80.00   25.07 0.9543  48.51 0.6025 0.5829
 960051 SESAN4_H1   15.750 1  1.0200 1.0835  100.07  -34.49 0.9454  55.48 0.1575 0.7179
 960052 SESAN4_H2   15.750 2  1.0200 1.0835  100.08  -34.49 0.9454  55.48 0.1575 0.7179
 960061 SESAN4A_H1  10.500 1  1.0000 1.0730   21.00   -1.89 0.9960  32.19 0.0175 0.2101
 960715 DAKSRON2A_H16.0000 1  1.0000 1.7932    6.00    0.14 0.9997  63.77 0.6228 0.4182
 961011 SONGHINH_H1 10.500 1  1.0000 1.7444   35.00    6.96 0.9808  47.26 0.5598 0.6609
 961021 SONGBAHA_H1 13.800 1  1.0000 1.7968  105.08   48.80 0.9070  45.90 0.6860 0.5743
 970011 DANHIM_H1   13.200 1  1.0000 1.4381   40.00    2.08 0.9987  54.88 0.3954 0.7974
 970012 DANHIM_H2   13.200 1  1.0000 1.4379   40.00    2.07 0.9987  54.88 0.3953 0.7975
 970021 SONGPHA_H1  6.0000 1  1.0000 1.2529    7.01   -1.39 0.9808  71.50 0.3989 0.6861
 970031 DADANG_H1   10.000 1  1.0000 1.6507   17.00   -2.90 0.9858  77.09 0.5088 0.6323
 970041 DAMBRI_H1   13.800 1  1.0000 1.2862   37.03   -5.61 0.9887  69.02 0.4104 0.7430
 970685 BAOLOC_H1   6.0000 1  1.0000 1.7441   12.01   -2.75 0.9747  97.86 0.7089 0.4778
 970711 BACBINH_H1  11.000 1  1.0000 1.3395   16.01   -1.50 0.9956  70.70 0.4299 0.7201
 971011 HAMTHUAN_H1 13.800 1  1.0500 1.6360  150.00   31.21 0.9790  57.43 0.5156 0.6433
 971021 DAMY_H1     13.800 1  1.0000 1.4607   85.06    2.43 0.9996  65.05 0.4766 0.6749
 972021 DAININH_H1  13.800 1  1.0000 1.3089  150.00  -16.59 0.9939  63.33 0.3974 0.7571
 972051 VINHTAN2_S1 26.000 1  1.0000 2.4564  550.00   97.81 0.9846  84.23 0.6799 0.4051
 972052 VINHTAN2_S2 26.000 1  1.0000 2.4564  550.00   97.81 0.9846  84.23 0.6799 0.4051
 972071 LANGAU_H1   10.500 1  1.0000 0.9600   38.00  -20.54 0.8797  73.68 0.2211 0.8351
 973011 THACMO_H1   13.800 1  1.0000 1.5326   75.00   -3.06 0.9992  58.50 0.4354 0.7306
 973021 SROKPHUMI_H111.000 1  1.0500 1.3082   25.02    7.17 0.9613  34.95 0.1087 0.2228
 973022 SROKPHUMI_H211.000 1  1.0500 1.3082   25.02    7.17 0.9613  34.95 0.1087 0.2228
 973682 DAKGLUN_H1  10.000 1  1.0000 1.8307    9.00   -4.01 0.9133  96.09 0.6238 0.6150
 973683 DAKGLUN_H2  10.000 2  1.0000 1.8307    9.00   -4.01 0.9133  96.09 0.6238 0.6150
 974011 BOURBON_S1  11.000 1  1.0500 2.1255   24.00    2.32 0.9954  24.51 0.2691 1.5071
 974021 CANDON_H1   11.000 1  1.0200 1.3684   35.00    0.39 0.9999  45.76 0.2668 0.7026
 974022 CANDON_H2   11.000 1  1.0000 1.1436   35.00   -7.26 0.9792  48.32 0.1479 0.7687
 975011 AMATA_S1    10.000 1  1.0500 1.5052   14.01    1.30 0.9957  23.13 0.0264 0.1314
 975021 VEDAN_S1    13.000 1  1.0500 2.0158   55.04   25.05 0.9102  49.84 0.5815 0.4244
 975031 TRIAN_H1    13.800 1  1.0000 1.5223  100.00   11.20 0.9938  47.96 0.4463 0.7300
 975041 FORMOSA_S1  13.800 1  1.1000 2.0542  150.00   52.78 0.9433  53.22 0.5854 0.5828
 975042 FORMOSA_S2  13.800 1  1.1000 1.8089  150.00   39.62 0.9668  48.52 0.4370 0.5446
 975051 NHONTRAC1_G115.000 1  1.0000 2.3987  185.14   31.91 0.9855  85.13 0.7448 0.3773
 975052 NHONTRAC1_G215.000 2  1.0000 2.1761  185.14   31.91 0.9855  84.78 0.7425 0.3820
 975053 NHONTRAC1_G315.000 3  1.0000 2.1761  185.14   31.91 0.9855  84.78 0.7425 0.3820
 975061 NHONTRAC2_G120.000 1  1.0000 1.5793  200.00  -33.29 0.9864  89.05 0.5279 0.4076
 975062 NHONTRAC2_G220.000 1  1.0000 1.5793  200.00  -33.29 0.9864  89.05 0.5279 0.4076
 975071 NHONTRAC2_S120.000 1  1.0000 1.8322  200.00  -34.93 0.9851  89.83 0.5323 0.4034
 977011 HIEPPHUOC_S113.800 1  1.0400 1.9791   90.00   22.87 0.9692  63.29 0.4913 0.3572
 977012 HIEPPHUOC_S213.800 1  1.0400 1.9781   90.00   22.79 0.9694  63.35 0.4910 0.3574
 977013 HIEPPHUOC_S313.800 1  1.0400 1.9988   90.00   24.49 0.9649  62.75 0.4966 0.3544
 977021 THUDUC_S1   13.800 1  1.0000 1.6558   33.00   -4.16 0.9921  70.91 0.5146 0.5440
 977022 THUDUC_S2   13.800 1  1.0500 2.5524   62.00   28.47 0.9087  49.69 0.6429 0.4550
 978001 BARIA_S1    11.000 1  1.0400 1.9014   55.00   -2.12 0.9993  72.29 0.5240 0.5068
 978002 BARIA_S2    11.000 1  1.0000 1.9518   55.04    2.57 0.9989  75.27 0.5942 0.4721
 978013 BARIA_G3    11.000 1  1.0300 1.7664   31.02    3.01 0.9953  60.63 0.4300 0.4703
 978014 BARIA_G4    11.000 1  1.0300 1.7664   31.02    3.01 0.9953  60.63 0.4300 0.4703
 978015 BARIA_G5    11.000 1  1.0000 1.8324   31.02    3.61 0.9933  66.47 0.5489 0.4887
 978016 BARIA_G6    11.000 1  1.0000 1.8324   31.02    3.61 0.9933  66.47 0.5489 0.4887
 978017 BARIA_G7    11.000 1  1.0000 1.8324   31.02    3.61 0.9933  66.47 0.5489 0.4887
 978018 BARIA_G8    11.000 1  1.0300 1.8446   31.02    3.01 0.9953  63.00 0.4936 0.4969
 978021 PHUMY1_G1   15.000 1  1.0000 1.8903  200.00   15.96 0.9968  75.60 0.5309 0.4362
 978022 PHUMY1_G2   15.000 1  1.0000 1.8931  200.00   16.44 0.9966  75.49 0.5314 0.4358
 978023 PHUMY1_G3   15.000 1  1.0000 1.8929  200.00   16.41 0.9966  75.50 0.5314 0.4358
 978041 PHUMY21_G1  15.750 1  1.0200 2.3752  145.00   40.54 0.9631  75.38 0.6163 0.3379
 978042 PHUMY21_G2  15.750 1  1.0200 2.5939  145.00   64.57 0.9135  66.47 0.6713 0.3137
 978044 PHUMY21_G4  10.500 1  1.0000 1.8666  145.00   -0.67 1.0000  72.64 0.6488 0.5537
 978045 PHUMY21_G5  10.500 1  1.0000 1.9461  145.00    9.86 0.9977  74.29 0.6648 0.5375
 978051 PHUMY21_S1  15.800 1  1.0000 2.1471  145.00   -0.25 1.0000  86.83 0.7404 0.4235
 978061 PHUMY4_G1   15.750 1  1.0000 2.0426  150.11   48.57 0.9514  81.38 0.6655 0.3486
 978062 PHUMY4_G2   15.750 1  1.0000 2.5028  150.11   48.57 0.9514  82.28 0.6709 0.3381
 978071 PHUMY4_S1   15.750 1  1.0000 2.4042  150.11   48.57 0.9514  84.45 0.6833 0.3124
 978081 PHUMY22_G1  15.750 1  1.0400 2.2487  238.70   40.47 0.9859  80.20 0.6135 0.4162
 978082 PHUMY22_G2  15.750 1  1.0400 2.2487  238.70   40.47 0.9859  80.20 0.6135 0.4162
 978091 PHUMY22_S1  15.750 1  1.0000 2.2560  277.60    1.20 1.0000  95.91 0.7063 0.4096
 978101 PHUMY3_G1   15.750 1  1.0000 1.9380  237.20  -16.50 0.9976  86.70 0.6827 0.5101
 978111 PHUMY3_S1   15.750 1  1.0000 2.4332  268.40  -13.36 0.9988  93.85 0.7854 0.4412
 983011 CANTHO_S1   13.000 1  1.0000 2.6241   30.00   21.01 0.8192  60.52 0.8123 0.3807
 983021 CANTHO_G1   11.000 1  0.9900 1.4922   35.00  -20.16 0.8665 103.58 0.7063 0.6270
...

 INITIAL CONDITIONS CHECK O.K.

 Channel output file is "VN_wind.out"

 Channel output file is "VN_wind.out"

    TIME X- VALUE --X X--------- IDENTIFIER ---------X X- VALUE --X X--------- IDENTIFIER ---------X
 -0.0100 -0.16333     SPD      2[PHULAC-DG   22.000]1  -0.33000     SPD      3[PHUOCTHE-DG 22.000]1
     3   -0.33000     SPD      4[HOAMINH-DG  22.000]1  -0.33000     SPD      5[PHANRITHANH-22.000]1
     5     0.0000     SPD 919013[SONLA_H3    18.000]1    0.0000     SPD 923012[HOABINH_H2  15.750]1
     7     0.0000     SPD 938011[VUNGANG1_S1 26.000]1    0.0000     SPD 978022[PHUMY1_G2   15.000]1
     9     0.0000     SPD 983042[OMON1_S2    16.000]1   0.50000     PMEC     2[PHULAC-DG   22.000]1
    11    0.28000     PMEC     3[PHUOCTHE-DG 22.000]1   0.14500     PMEC     4[HOAMINH-DG  22.000]1
    13    0.30000     PMEC     5[PHANRITHANH-22.000]1   0.33708     PMEC923012[HOABINH_H2  15.750]1
    15    0.77917     PMEC938011[VUNGANG1_S1 26.000]1   0.68493     PMEC978022[PHUMY1_G2   15.000]1
    17    0.68292     PMEC983042[OMON1_S2    16.000]1

  5.0001 -0.16333     -0.33000     -0.33000     -0.33000       0.0000     -1.63543E-07
     7   -1.82777E-07 -1.59268E-07 -1.86001E-07  0.50000      0.28000      0.14500
    13    0.30000      0.33708      0.77917      0.68493      0.68292

 *** Status of machine "1" at bus 938011 [VUNGANG1_S1 26.000] is set to out-of-service ***

 Channel output file is "VN_wind.out"

 4909 diagonal and 6673 off-diagonal elements

    TIME X- VALUE --X X--------- IDENTIFIER ---------X X- VALUE --X X--------- IDENTIFIER ---------X
  5.0001 -0.16333     SPD      2[PHULAC-DG   22.000]1  -0.33000     SPD      3[PHUOCTHE-DG 22.000]1
     3   -0.33000     SPD      4[HOAMINH-DG  22.000]1  -0.33000     SPD      5[PHANRITHANH-22.000]1
     5     0.0000     SPD 919013[SONLA_H3    18.000]1  -1.63543E-07 SPD 923012[HOABINH_H2  15.750]1
     7     0.0000     SPD 938011[VUNGANG1_S1 26.000]1  -1.59268E-07 SPD 978022[PHUMY1_G2   15.000]1
     9   -1.86001E-07 SPD 983042[OMON1_S2    16.000]1   0.50000     PMEC     2[PHULAC-DG   22.000]1
    11    0.28000     PMEC     3[PHUOCTHE-DG 22.000]1   0.14500     PMEC     4[HOAMINH-DG  22.000]1
    13    0.30000     PMEC     5[PHANRITHANH-22.000]1   0.33708     PMEC923012[HOABINH_H2  15.750]1
    15     0.0000     PMEC938011[VUNGANG1_S1 26.000]1   0.68493     PMEC978022[PHUMY1_G2   15.000]1
    17    0.68292     PMEC983042[OMON1_S2    16.000]1

 Network not converged at TIME = 8.1051

 Network not converged at TIME = 8.1101

 Network not converged at TIME = 8.1151

 Network not converged at TIME = 8.1201

 Network not converged at TIME = 8.1251

 Network not converged at TIME = 8.1301

 Network not converged at TIME = 8.1351

 Network not converged at TIME = 8.1401

 Network not converged at TIME = 8.1451

 Network not converged at TIME = 8.1501

 Network not converged at TIME = 8.1551

 Network not converged at TIME = 8.1601

 Network not converged at TIME = 8.1651

 Network not converged at TIME = 8.1701

 Network not converged at TIME = 8.1751

 Network not converged at TIME = 8.1801

 Network not converged at TIME = 8.1851

 Network not converged at TIME = 8.1901

 Network not converged at TIME = 8.1951

 Network not converged at TIME = 8.2001

 Network not converged at TIME = 8.2051

 Network not converged at TIME = 8.2101

 Network not converged at TIME = 8.2151

 Network not converged at TIME = 8.2201

 Network not converged at TIME = 8.2251

 Network not converged at TIME = 8.2301

 Network not converged at TIME = 8.2351

 Network not converged at TIME = 8.2401

 Network not converged at TIME = 8.2451

 Network not converged at TIME = 8.2501

 Network not converged at TIME = 8.2551

 Network not converged at TIME = 8.2601

 Network not converged at TIME = 8.2651

 Network not converged at TIME = 8.2701

 Network not converged at TIME = 8.2751

 Network not converged at TIME = 8.2801

 Network not converged at TIME = 8.2851

 Network not converged at TIME = 8.2901

 Network not converged at TIME = 8.2951

 Network not converged at TIME = 8.3001

 Network not converged at TIME = 8.3051

 Network not converged at TIME = 8.3101

 Network not converged at TIME = 8.3151

 Network not converged at TIME = 8.3201

 Network not converged at TIME = 8.3251

 Network not converged at TIME = 8.3301

 Network not converged at TIME = 8.3351

 Network not converged at TIME = 8.3401

 Network not converged at TIME = 8.3451

 Network not converged at TIME = 8.3501

 Network not converged at TIME = 8.3551

 Network not converged at TIME = 8.3601

 Network not converged at TIME = 8.3651

 Network not converged at TIME = 8.3701

 Network not converged at TIME = 8.3751

 Network not converged at TIME = 8.3801

 Network not converged at TIME = 8.3851

 Network not converged at TIME = 8.3901

 Network not converged at TIME = 8.3951

 Network not converged at TIME = 8.4001

 Network not converged at TIME = 8.4051

 Network not converged at TIME = 8.4101

 Network not converged at TIME = 8.4151

 Network not converged at TIME = 8.4201

 Network not converged at TIME = 8.4251

 Network not converged at TIME = 8.4301

 Network not converged at TIME = 8.4351

 Network not converged at TIME = 8.4401

 Network not converged at TIME = 8.4451

 Network not converged at TIME = 8.4501

 Network not converged at TIME = 8.4551

 Network not converged at TIME = 8.4601

 Network not converged at TIME = 8.4651

 Network not converged at TIME = 8.4701

 Network not converged at TIME = 8.4751

 Network not converged at TIME = 8.4801

 Network not converged at TIME = 8.4851

 Network not converged at TIME = 8.4901

 Network not converged at TIME = 8.4951

 Network not converged at TIME = 8.5001

 Network not converged at TIME = 8.5051

 Network not converged at TIME = 8.5101

 Network not converged at TIME = 8.5151

 Network not converged at TIME = 8.5201

 Network not converged at TIME = 8.5251

 Network not converged at TIME = 8.5301

 Network not converged at TIME = 8.5351

 Network not converged at TIME = 8.5401

 Network not converged at TIME = 8.5451

 Network not converged at TIME = 8.5501

 Network not converged at TIME = 8.5551

 Network not converged at TIME = 8.5601

 Network not converged at TIME = 8.5651

 Network not converged at TIME = 8.5701

 Network not converged at TIME = 8.5751

 Network not converged at TIME = 8.5801

 Network not converged at TIME = 8.5851

 Network not converged at TIME = 8.5901

 Network not converged at TIME = 8.5951

 Network not converged at TIME = 8.6001

 Network not converged at TIME = 8.6051

 Network not converged at TIME = 8.6101

 Network not converged at TIME = 8.6151

 Network not converged at TIME = 8.6201

 Network not converged at TIME = 8.6251

 Network not converged at TIME = 8.6301

 Network not converged at TIME = 8.6351

 Network not converged at TIME = 8.6402

 Network not converged at TIME = 8.6452

 Network not converged at TIME = 8.6502

 Network not converged at TIME = 8.6552

 Network not converged at TIME = 8.6602

 Network not converged at TIME = 8.6652

 Network not converged at TIME = 8.6702

 Network not converged at TIME = 8.6752

 Network not converged at TIME = 8.6802

 Network not converged at TIME = 8.6852

 Network not converged at TIME = 8.6902

 Network not converged at TIME = 8.6952

 Network not converged at TIME = 8.7002

 Network not converged at TIME = 8.7052

 Network not converged at TIME = 8.7102

 Network not converged at TIME = 8.7152

 Network not converged at TIME = 8.7202

 Network not converged at TIME = 8.7252

 Network not converged at TIME = 8.7302

 Network not converged at TIME = 8.7352

 Network not converged at TIME = 8.7402

 Network not converged at TIME = 8.7452

 Network not converged at TIME = 8.7502

 Network not converged at TIME = 8.7552

 Network not converged at TIME = 8.7602

 Network not converged at TIME = 8.7652

 Network not converged at TIME = 8.7702

 Network not converged at TIME = 8.7752

 Network not converged at TIME = 8.7802

 Network not converged at TIME = 8.7852

 Network not converged at TIME = 8.7902

 Network not converged at TIME = 8.7952

 Network not converged at TIME = 8.8002

 Network not converged at TIME = 8.8052

 Network not converged at TIME = 8.8102

 Network not converged at TIME = 8.8152

 Network not converged at TIME = 8.8202

 Network not converged at TIME = 8.8252

 Network not converged at TIME = 8.8302

 Network not converged at TIME = 8.8352

 Network not converged at TIME = 8.8402

 Network not converged at TIME = 8.8452

 Network not converged at TIME = 8.8502

 Network not converged at TIME = 8.8552

 Network not converged at TIME = 8.8602

 Network not converged at TIME = 8.8652

 Network not converged at TIME = 8.8702

 Network not converged at TIME = 8.8752

 Network not converged at TIME = 8.8802

 Network not converged at TIME = 8.8852

 Network not converged at TIME = 8.8902

 Network not converged at TIME = 8.8952

 Network not converged at TIME = 8.9002

 Network not converged at TIME = 8.9052

 Network not converged at TIME = 8.9102

 Network not converged at TIME = 8.9152

 Network not converged at TIME = 8.9202

 Network not converged at TIME = 8.9252

 Network not converged at TIME = 8.9302

 Network not converged at TIME = 8.9352

 Network not converged at TIME = 8.9402

 Network not converged at TIME = 8.9452

 Network not converged at TIME = 8.9502

 Network not converged at TIME = 8.9552

 Network not converged at TIME = 8.9602

 Network not converged at TIME = 8.9652

 Network not converged at TIME = 8.9702

 Network not converged at TIME = 8.9752

 Network not converged at TIME = 8.9802

 Network not converged at TIME = 8.9852

 Network not converged at TIME = 8.9902

 Network not converged at TIME = 8.9952

 Network not converged at TIME = 9.0002

 Network not converged at TIME = 9.0052

 Network not converged at TIME = 9.0102

 Network not converged at TIME = 9.0152

 Network not converged at TIME = 9.0202

 Network not converged at TIME = 9.0252

 Network not converged at TIME = 9.0302

 Network not converged at TIME = 9.0352

 Network not converged at TIME = 9.0402

 Network not converged at TIME = 9.0452

 Network not converged at TIME = 9.0502

 Network not converged at TIME = 9.0552

 Network not converged at TIME = 9.0602

 Network not converged at TIME = 9.0652

 Network not converged at TIME = 9.0702

 Network not converged at TIME = 9.0752

 Network not converged at TIME = 9.0802

 Network not converged at TIME = 9.0852

 Network not converged at TIME = 9.0902

 Network not converged at TIME = 9.0952

 Network not converged at TIME = 9.1002

 Network not converged at TIME = 9.1052

 Network not converged at TIME = 9.1102

 Network not converged at TIME = 9.1152

 Network not converged at TIME = 9.1202

 Network not converged at TIME = 9.1252

 Network not converged at TIME = 9.1302

 Network not converged at TIME = 9.1352

 Network not converged at TIME = 9.1402

 Network not converged at TIME = 9.1452

 Network not converged at TIME = 9.1502

 Network not converged at TIME = 9.1552

 Network not converged at TIME = 9.1602

 Network not converged at TIME = 9.1652

 Network not converged at TIME = 9.1702

 Network not converged at TIME = 9.1752

 Network not converged at TIME = 9.1802

 Network not converged at TIME = 9.1852

 Network not converged at TIME = 9.1902

 Network not converged at TIME = 9.1952

 Network not converged at TIME = 9.2002

 Network not converged at TIME = 9.2052

 Network not converged at TIME = 9.2102

 Network not converged at TIME = 9.2152

 Network not converged at TIME = 9.2202

 Network not converged at TIME = 9.2252

 Network not converged at TIME = 9.2302

 Network not converged at TIME = 9.2352

 Network not converged at TIME = 9.2402

 Network not converged at TIME = 9.2452

 Network not converged at TIME = 9.2502

 Network not converged at TIME = 9.2552

 Network not converged at TIME = 9.2602

 Network not converged at TIME = 9.2652

 Network not converged at TIME = 9.2702

 Network not converged at TIME = 9.2752

 Network not converged at TIME = 9.2802

 Network not converged at TIME = 9.2852

 Network not converged at TIME = 9.2902

 Network not converged at TIME = 9.2952

 Network not converged at TIME = 9.3002

 Network not converged at TIME = 9.3052

 Network not converged at TIME = 9.3102

 Network not converged at TIME = 9.3152

 Network not converged at TIME = 9.3202

 Network not converged at TIME = 9.3252

 Network not converged at TIME = 9.3302

 Network not converged at TIME = 9.3352

 Network not converged at TIME = 9.3402

 Network not converged at TIME = 9.3452

 Network not converged at TIME = 9.3502

 Network not converged at TIME = 9.3552

 Network not converged at TIME = 9.3602

 Network not converged at TIME = 9.3652

 Network not converged at TIME = 9.3702

 Network not converged at TIME = 9.3752

 Network not converged at TIME = 9.3802

 Network not converged at TIME = 9.3852

 Network not converged at TIME = 9.3902

 Network not converged at TIME = 9.3952

 Network not converged at TIME = 9.4002

 Network not converged at TIME = 9.4052

 Network not converged at TIME = 9.4102

 Network not converged at TIME = 9.4152

 Network not converged at TIME = 9.4202

 Network not converged at TIME = 9.4252

 Network not converged at TIME = 9.4302

 Network not converged at TIME = 9.4352

 Network not converged at TIME = 9.4402

 Network not converged at TIME = 9.4452

 Network not converged at TIME = 9.4502

 Network not converged at TIME = 9.4552

 Network not converged at TIME = 9.4602

 Network not converged at TIME = 9.4652

 Network not converged at TIME = 9.4702

 Network not converged at TIME = 9.4752

 Network not converged at TIME = 9.4802

 Network not converged at TIME = 9.4852

 Network not converged at TIME = 9.4902

 Network not converged at TIME = 9.4952

 Network not converged at TIME = 9.5002

 Network not converged at TIME = 9.5052

 Network not converged at TIME = 9.5102

 Network not converged at TIME = 9.5152

 Network not converged at TIME = 9.5202

 Network not converged at TIME = 9.5252

 Network not converged at TIME = 9.5302

 Network not converged at TIME = 9.5352

 Network not converged at TIME = 9.5402

 Network not converged at TIME = 9.5452

 Network not converged at TIME = 9.5502

 Network not converged at TIME = 9.5552

 Network not converged at TIME = 9.5602

 Network not converged at TIME = 9.5652

 Network not converged at TIME = 9.5702

 Network not converged at TIME = 9.5752

 Network not converged at TIME = 9.5802

 Network not converged at TIME = 9.5852

 Network not converged at TIME = 9.5902

 Network not converged at TIME = 9.5952

 Network not converged at TIME = 9.6002

 Network not converged at TIME = 9.6052

 Network not converged at TIME = 9.6102

 Network not converged at TIME = 9.6152

 Network not converged at TIME = 9.6202

 Network not converged at TIME = 9.6252

 Network not converged at TIME = 9.6302

 Network not converged at TIME = 9.6352

 Network not converged at TIME = 9.6402

 Network not converged at TIME = 9.6452

 Network not converged at TIME = 9.6502

 Network not converged at TIME = 9.6552

 Network not converged at TIME = 9.6602

 Network not converged at TIME = 9.6652

 Network not converged at TIME = 9.6702

 Network not converged at TIME = 9.6752

 Network not converged at TIME = 9.6802

 Network not converged at TIME = 9.6852

 Network not converged at TIME = 9.6902

 Network not converged at TIME = 9.6952

 Network not converged at TIME = 9.7002

 Network not converged at TIME = 9.7052

 Network not converged at TIME = 9.7102

 Network not converged at TIME = 9.7152

 Network not converged at TIME = 9.7202

 Network not converged at TIME = 9.7252

 Network not converged at TIME = 9.7302

 Network not converged at TIME = 9.7352

 Network not converged at TIME = 9.7402

 Network not converged at TIME = 9.7452

 Network not converged at TIME = 9.7502

 Network not converged at TIME = 9.7552

 Network not converged at TIME = 9.7602

 Network not converged at TIME = 9.7652

 Network not converged at TIME = 9.7702

 Network not converged at TIME = 9.7752

 Network not converged at TIME = 9.7802

 Network not converged at TIME = 9.7852

 Network not converged at TIME = 9.7902

 Network not converged at TIME = 9.7952

 Network not converged at TIME = 9.8002

 Network not converged at TIME = 9.8052

 Network not converged at TIME = 9.8102

 Network not converged at TIME = 9.8152

 Network not converged at TIME = 9.8202

 Network not converged at TIME = 9.8252

 Network not converged at TIME = 9.8302

 Network not converged at TIME = 9.8352

 Network not converged at TIME = 9.8402

 Network not converged at TIME = 9.8452

 Network not converged at TIME = 9.8502

 Network not converged at TIME = 9.8552

 Network not converged at TIME = 9.8602

 Network not converged at TIME = 9.8652

 Network not converged at TIME = 9.8702

 Network not converged at TIME = 9.8752

 Network not converged at TIME = 9.8802

 Network not converged at TIME = 9.8852

 Network not converged at TIME = 9.8902

 Network not converged at TIME = 9.8952

 Network not converged at TIME = 9.9002

 Network not converged at TIME = 9.9052

 Network not converged at TIME = 9.9102

 Network not converged at TIME = 9.9152

 Network not converged at TIME = 9.9202

 Network not converged at TIME = 9.9252

 Network not converged at TIME = 9.9302

 Network not converged at TIME = 9.9352

 Network not converged at TIME = 9.9402

 Network not converged at TIME = 9.9452

 Network not converged at TIME = 9.9502

 Network not converged at TIME = 9.9552

 Network not converged at TIME = 9.9602

 Network not converged at TIME = 9.9652

 Network not converged at TIME = 9.9702

 Network not converged at TIME = 9.9752

 Network not converged at TIME = 9.9802

 Network not converged at TIME = 9.9852

 Network not converged at TIME = 9.9902

 Network not converged at TIME = 9.9952

 Network not converged at TIME = 10.0002

 Network not converged at TIME = 10.0052

 Network not converged at TIME = 10.0102

 Network not converged at TIME = 10.0152

 Network not converged at TIME = 10.0202

 Network not converged at TIME = 10.0252

 Network not converged at TIME = 10.0302

 Network not converged at TIME = 10.0352

 Network not converged at TIME = 10.0402

 Network not converged at TIME = 10.0452

 Network not converged at TIME = 10.0502

 Network not converged at TIME = 10.0552

 Network not converged at TIME = 10.0602

 Network not converged at TIME = 10.0652

 Network not converged at TIME = 10.0702

 Network not converged at TIME = 10.0752

 Network not converged at TIME = 10.0802

 Network not converged at TIME = 10.0852

 Network not converged at TIME = 10.0902

 Network not converged at TIME = 10.0952

 Network not converged at TIME = 10.1002

 Network not converged at TIME = 10.1052

 Network not converged at TIME = 10.1102

 Network not converged at TIME = 10.1152

 Network not converged at TIME = 10.1202

 Network not converged at TIME = 10.1252

 Network not converged at TIME = 10.1302

 Network not converged at TIME = 10.1352

 Network not converged at TIME = 10.1402

 Network not converged at TIME = 10.1452

 Network not converged at TIME = 10.1502

 Network not converged at TIME = 10.1552

 Network not converged at TIME = 10.1602

 Network not converged at TIME = 10.1652

 Network not converged at TIME = 10.1702

 Network not converged at TIME = 10.1752

 Network not converged at TIME = 10.1802

 Network not converged at TIME = 10.1852

 Network not converged at TIME = 10.1902

 Network not converged at TIME = 10.1952

 Network not converged at TIME = 10.2002

 Network not converged at TIME = 10.2052

 Network not converged at TIME = 10.2102

 Network not converged at TIME = 10.2152

 Network not converged at TIME = 10.2202

 Network not converged at TIME = 10.2252

 Network not converged at TIME = 10.2302

 Network not converged at TIME = 10.2352

 Network not converged at TIME = 10.2402

 Network not converged at TIME = 10.2452

 Network not converged at TIME = 10.2502

 Network not converged at TIME = 10.2552

 Network not converged at TIME = 10.2602

 Network not converged at TIME = 10.2652

 Network not converged at TIME = 10.2702

 Network not converged at TIME = 10.2752

 Network not converged at TIME = 10.2802

 Network not converged at TIME = 10.2852

 Network not converged at TIME = 10.2902

 Network not converged at TIME = 10.2952

 Network not converged at TIME = 10.3002

 Network not converged at TIME = 10.3052

 Network not converged at TIME = 10.3102

 Network not converged at TIME = 10.3152

 Network not converged at TIME = 10.3202

 Network not converged at TIME = 10.3252

 Network not converged at TIME = 10.3302

 Network not converged at TIME = 10.3352

 Network not converged at TIME = 10.3402

 Network not converged at TIME = 10.3452

 Network not converged at TIME = 10.3502

 Network not converged at TIME = 10.3552

 Network not converged at TIME = 10.3602

 Network not converged at TIME = 10.3652

 Network not converged at TIME = 10.3702

 Network not converged at TIME = 10.3752

 Network not converged at TIME = 10.3802

 Network not converged at TIME = 10.3852

 Network not converged at TIME = 10.3902

 Network not converged at TIME = 10.3952

 Network not converged at TIME = 10.4002

 Network not converged at TIME = 10.4052

 Network not converged at TIME = 10.4102

 Network not converged at TIME = 10.4152

 Network not converged at TIME = 10.4202

 Network not converged at TIME = 10.4252

 Network not converged at TIME = 10.4302

 Network not converged at TIME = 10.4352

 Network not converged at TIME = 10.4402

 Network not converged at TIME = 10.4452

 Network not converged at TIME = 10.4502

 Network not converged at TIME = 10.4552

 Network not converged at TIME = 10.4602

 Network not converged at TIME = 10.4652

 Network not converged at TIME = 10.4702

 Network not converged at TIME = 10.4752

 Network not converged at TIME = 10.4802

 Network not converged at TIME = 10.4852

 Network not converged at TIME = 10.4902

 Network not converged at TIME = 10.4952

 Network not converged at TIME = 10.5002

 Network not converged at TIME = 10.5052

 Network not converged at TIME = 10.5102

 Network not converged at TIME = 10.5152

 Network not converged at TIME = 10.5202

 Network not converged at TIME = 10.5252

 Network not converged at TIME = 10.5302

 Network not converged at TIME = 10.5352

 Network not converged at TIME = 10.5402

 Network not converged at TIME = 10.5452

 Network not converged at TIME = 10.5502

 Network not converged at TIME = 10.5552

 Network not converged at TIME = 10.5602

 Network not converged at TIME = 10.5652

 Network not converged at TIME = 10.5702

 Network not converged at TIME = 10.5752

 Network not converged at TIME = 10.5802

 Network not converged at TIME = 10.5852

 Network not converged at TIME = 10.5902

 Network not converged at TIME = 10.5952

 Network not converged at TIME = 10.6002

 Network not converged at TIME = 10.6052

 Network not converged at TIME = 10.6102

 Network not converged at TIME = 10.6152

 Network not converged at TIME = 10.6202

 Network not converged at TIME = 10.6252

 Network not converged at TIME = 10.6302

 Network not converged at TIME = 10.6352

 Network not converged at TIME = 10.6402

 Network not converged at TIME = 10.6452

 Network not converged at TIME = 10.6502

 Network not converged at TIME = 10.6552

 Network not converged at TIME = 10.6602

 Network not converged at TIME = 10.6652

 Network not converged at TIME = 10.6702

 Network not converged at TIME = 10.6752

 Network not converged at TIME = 10.6802

 Network not converged at TIME = 10.6852

 Network not converged at TIME = 10.6902

 Network not converged at TIME = 10.6952

 Network not converged at TIME = 10.7002

 Network not converged at TIME = 10.7052

 Network not converged at TIME = 10.7102

 Network not converged at TIME = 10.7152

 Network not converged at TIME = 10.7202

 Network not converged at TIME = 10.7252

 Network not converged at TIME = 10.7302

 Network not converged at TIME = 10.7352

 Network not converged at TIME = 10.7402

 Network not converged at TIME = 10.7452

 Network not converged at TIME = 10.7502

 Network not converged at TIME = 10.7552

 Network not converged at TIME = 10.7602

 Network not converged at TIME = 10.7652

 Network not converged at TIME = 10.7702

 Network not converged at TIME = 10.7752

 Network not converged at TIME = 10.7802

 Network not converged at TIME = 10.7852

 Network not converged at TIME = 10.7902

 Network not converged at TIME = 10.7952

 Network not converged at TIME = 10.8002

 Network not converged at TIME = 10.8052

 Network not converged at TIME = 10.8102

 Network not converged at TIME = 10.8152

 Network not converged at TIME = 10.8202

 Network not converged at TIME = 10.8252

 Network not converged at TIME = 10.8302

 Network not converged at TIME = 10.8352

 Network not converged at TIME = 10.8402

 Network not converged at TIME = 10.8452

 Network not converged at TIME = 10.8502

 Network not converged at TIME = 10.8552

 Network not converged at TIME = 10.8602

 Network not converged at TIME = 10.8652

 Network not converged at TIME = 10.8702

 Network not converged at TIME = 10.8752

 Network not converged at TIME = 10.8802

 Network not converged at TIME = 10.8852

 Network not converged at TIME = 10.8902

 Network not converged at TIME = 10.8952

 Network not converged at TIME = 10.9002

 Network not converged at TIME = 10.9052

 Network not converged at TIME = 10.9102

 Network not converged at TIME = 10.9152

 Network not converged at TIME = 10.9202

 Network not converged at TIME = 10.9252

 Network not converged at TIME = 10.9302

 Network not converged at TIME = 10.9352

 Network not converged at TIME = 10.9402

 Network not converged at TIME = 10.9452

 Network not converged at TIME = 10.9502

 Network not converged at TIME = 10.9552

 Network not converged at TIME = 10.9602

 Network not converged at TIME = 10.9652

 Network not converged at TIME = 10.9702

 Network not converged at TIME = 10.9752

 Network not converged at TIME = 10.9802

 Network not converged at TIME = 10.9852

 Network not converged at TIME = 10.9902

 Network not converged at TIME = 10.9952

 Network not converged at TIME = 11.0002

 Network not converged at TIME = 11.0052

 Network not converged at TIME = 11.0102

 Network not converged at TIME = 11.0152

 Network not converged at TIME = 11.0202

 Network not converged at TIME = 11.0252

 Network not converged at TIME = 11.0302

 Network not converged at TIME = 11.0352

 Network not converged at TIME = 11.0402

 Network not converged at TIME = 11.0452

 Network not converged at TIME = 11.0502

 Network not converged at TIME = 11.0552

 Network not converged at TIME = 11.0602

 Network not converged at TIME = 11.0652

 Network not converged at TIME = 11.0702

 Network not converged at TIME = 11.0752

 Network not converged at TIME = 11.0802

 Network not converged at TIME = 11.0852

 Network not converged at TIME = 11.0902

 Network not converged at TIME = 11.0952

 Network not converged at TIME = 11.1002

 Network not converged at TIME = 11.1052

 Network not converged at TIME = 11.1102

 Network not converged at TIME = 11.1152

 Network not converged at TIME = 11.1202

 Network not converged at TIME = 11.1252

 Network not converged at TIME = 11.1302

 Network not converged at TIME = 11.1352

 Network not converged at TIME = 11.1402

 Network not converged at TIME = 11.1452

 Network not converged at TIME = 11.1502

 Network not converged at TIME = 11.1552

 Network not converged at TIME = 11.1602

 Network not converged at TIME = 11.1652

 Network not converged at TIME = 11.1702

 Network not converged at TIME = 11.1752

 Network not converged at TIME = 11.1802

 Network not converged at TIME = 11.1852

 Network not converged at TIME = 11.1902

 Network not converged at TIME = 11.1952

 Network not converged at TIME = 11.2002

 Network not converged at TIME = 11.2052

 Network not converged at TIME = 11.2102

 Network not converged at TIME = 11.2152

 Network not converged at TIME = 11.2202

 Network not converged at TIME = 11.2252

 Network not converged at TIME = 11.2302

 Network not converged at TIME = 11.2352

 Network not converged at TIME = 11.2402

 Network not converged at TIME = 11.2452

 Network not converged at TIME = 11.2502

 Network not converged at TIME = 11.2552

 Network not converged at TIME = 11.2602

 Network not converged at TIME = 11.2652

 Network not converged at TIME = 11.2702

 Network not converged at TIME = 11.2752

 Network not converged at TIME = 11.2802

 Network not converged at TIME = 11.2852

 Network not converged at TIME = 11.2902

 Network not converged at TIME = 11.2952

 Network not converged at TIME = 11.3002

 Network not converged at TIME = 11.3052

 Network not converged at TIME = 11.3102

 Network not converged at TIME = 11.3152

 Network not converged at TIME = 11.3202

 Network not converged at TIME = 11.3252

 Network not converged at TIME = 11.3302

 Network not converged at TIME = 11.3352

 Network not converged at TIME = 11.3402

 Network not converged at TIME = 11.3452

 Network not converged at TIME = 11.3502

 Network not converged at TIME = 11.3552

 Network not converged at TIME = 11.3602

 Network not converged at TIME = 11.3652

 Network not converged at TIME = 11.3702

 Network not converged at TIME = 11.3752

 Network not converged at TIME = 11.3802

 Network not converged at TIME = 11.3852

 Network not converged at TIME = 11.3902

 Network not converged at TIME = 11.3952

 Network not converged at TIME = 11.4002

 Network not converged at TIME = 11.4052

 Network not converged at TIME = 11.4102

 Network not converged at TIME = 11.4152

 Network not converged at TIME = 11.4202

 Network not converged at TIME = 11.4252

 Network not converged at TIME = 11.4302

 Network not converged at TIME = 11.4352

 Network not converged at TIME = 11.4402

 Network not converged at TIME = 11.4452

 Network not converged at TIME = 11.4502

 Network not converged at TIME = 11.4552

 Network not converged at TIME = 11.4602

 Network not converged at TIME = 11.4652

 Network not converged at TIME = 11.4702

 Network not converged at TIME = 11.4752

 Network not converged at TIME = 11.4802

 Network not converged at TIME = 11.4852

 Network not converged at TIME = 11.4902

 Network not converged at TIME = 11.4952

 Network not converged at TIME = 11.5002

 Network not converged at TIME = 11.5052

 Network not converged at TIME = 11.5102

 Network not converged at TIME = 11.5152

 Network not converged at TIME = 11.5202

 Network not converged at TIME = 11.5252

 Network not converged at TIME = 11.5302

 Network not converged at TIME = 11.5352

 Network not converged at TIME = 11.5402

 Network not converged at TIME = 11.5452

 Network not converged at TIME = 11.5502

 Network not converged at TIME = 11.5552

 Network not converged at TIME = 11.5602

 Network not converged at TIME = 11.5652

 Network not converged at TIME = 11.5702

 Network not converged at TIME = 11.5752

 Network not converged at TIME = 11.5802

 Network not converged at TIME = 11.5852

 Network not converged at TIME = 11.5902

 Network not converged at TIME = 11.5952

 Network not converged at TIME = 11.6002

 Network not converged at TIME = 11.6052

 Network not converged at TIME = 11.6102

 Network not converged at TIME = 11.6152

 Network not converged at TIME = 11.6202

 Network not converged at TIME = 11.6252

 Network not converged at TIME = 11.6302

 Network not converged at TIME = 11.6352

 Network not converged at TIME = 11.6402

 Network not converged at TIME = 11.6452

 Network not converged at TIME = 11.6502

 Network not converged at TIME = 11.6552

 Network not converged at TIME = 11.6602

 Network not converged at TIME = 11.6652

 Network not converged at TIME = 11.6702

 Network not converged at TIME = 11.6752

 Network not converged at TIME = 11.6802

 Network not converged at TIME = 11.6852

 Network not converged at TIME = 11.6902

 Network not converged at TIME = 11.6952

 Network not converged at TIME = 11.7002

 Network not converged at TIME = 11.7052

 Network not converged at TIME = 11.7102

 Network not converged at TIME = 11.7152

 Network not converged at TIME = 11.7202

 Network not converged at TIME = 11.7252

 Network not converged at TIME = 11.7302

 Network not converged at TIME = 11.7352

 Network not converged at TIME = 11.7402

 Network not converged at TIME = 11.7452

 Network not converged at TIME = 11.7502

 Network not converged at TIME = 11.7552

 Network not converged at TIME = 11.7602

 Network not converged at TIME = 11.7652

 Network not converged at TIME = 11.7702

 Network not converged at TIME = 11.7752

 Network not converged at TIME = 11.7802

 Network not converged at TIME = 11.7852

 Network not converged at TIME = 11.7902

 Network not converged at TIME = 11.7952

 Network not converged at TIME = 11.8002

 Network not converged at TIME = 11.8052

 Network not converged at TIME = 11.8102

 Network not converged at TIME = 11.8152

 Network not converged at TIME = 11.8202

 Network not converged at TIME = 11.8252

 Network not converged at TIME = 11.8302

 Network not converged at TIME = 11.8352

 Network not converged at TIME = 11.8402

 Network not converged at TIME = 11.8452

 Network not converged at TIME = 11.8502

 Network not converged at TIME = 11.8552

 Network not converged at TIME = 11.8602

 Network not converged at TIME = 11.8652

 Network not converged at TIME = 11.8702

 Network not converged at TIME = 11.8752

 Network not converged at TIME = 11.8802

 Network not converged at TIME = 11.8852

 Network not converged at TIME = 11.8902

 Network not converged at TIME = 11.8952

 Network not converged at TIME = 11.9002

 Network not converged at TIME = 11.9052

 Network not converged at TIME = 11.9102

 Network not converged at TIME = 11.9152

 Network not converged at TIME = 11.9202

 Network not converged at TIME = 11.9252

 Network not converged at TIME = 11.9302

 Network not converged at TIME = 11.9352

 Network not converged at TIME = 11.9402

 Network not converged at TIME = 11.9452

 Network not converged at TIME = 11.9502

 Network not converged at TIME = 11.9552

 Network not converged at TIME = 11.9602

 Network not converged at TIME = 11.9652

 Network not converged at TIME = 11.9702

 Network not converged at TIME = 11.9752

 Network not converged at TIME = 11.9802

 Network not converged at TIME = 11.9852

 Network not converged at TIME = 11.9902

 Network not converged at TIME = 11.9952

 Network not converged at TIME = 12.0002

 Network not converged at TIME = 12.0052

 Network not converged at TIME = 12.0102

 Network not converged at TIME = 12.0152

 Network not converged at TIME = 12.0202

 Network not converged at TIME = 12.0252

 Network not converged at TIME = 12.0302

 Network not converged at TIME = 12.0352

 Network not converged at TIME = 12.0402

 Network not converged at TIME = 12.0452

 Network not converged at TIME = 12.0502

 Network not converged at TIME = 12.0552

 Network not converged at TIME = 12.0602

 Network not converged at TIME = 12.0652

 Network not converged at TIME = 12.0702

 Network not converged at TIME = 12.0752

 Network not converged at TIME = 12.0802

 Network not converged at TIME = 12.0852

 Network not converged at TIME = 12.0902

 Network not converged at TIME = 12.0952

 Network not converged at TIME = 12.1002

 Network not converged at TIME = 12.1052

 Network not converged at TIME = 12.1102

 Network not converged at TIME = 12.1152

 Network not converged at TIME = 12.1202

 Network not converged at TIME = 12.1252

 Network not converged at TIME = 12.1302

 Network not converged at TIME = 12.1352

 Network not converged at TIME = 12.1402

 Network not converged at TIME = 12.1452

 Network not converged at TIME = 12.1502

 Network not converged at TIME = 12.1552

 Network not converged at TIME = 12.1602

 Network not converged at TIME = 12.1652

 Network not converged at TIME = 12.1702

 Network not converged at TIME = 12.1752

 Network not converged at TIME = 12.1802

 Network not converged at TIME = 12.1852

 Network not converged at TIME = 12.1902

 Network not converged at TIME = 12.1952

 Network not converged at TIME = 12.2002

 Network not converged at TIME = 12.2052

 Network not converged at TIME = 12.2102

 Network not converged at TIME = 12.2152

 Network not converged at TIME = 12.2202

 Network not converged at TIME = 12.2252

 Network not converged at TIME = 12.2302

 Network not converged at TIME = 12.2352

 Network not converged at TIME = 12.2402

 Network not converged at TIME = 12.2452

 Network not converged at TIME = 12.2502

 Network not converged at TIME = 12.2552

 Network not converged at TIME = 12.2602

 Network not converged at TIME = 12.2652

 Network not converged at TIME = 12.2702

 Network not converged at TIME = 12.2752

 Network not converged at TIME = 12.2802

 Network not converged at TIME = 12.2852

 Network not converged at TIME = 12.2902

 Network not converged at TIME = 12.2952

 Network not converged at TIME = 12.3002

 Network not converged at TIME = 12.3052

 Network not converged at TIME = 12.3102

 Network not converged at TIME = 12.3152

 Network not converged at TIME = 12.3202

 Network not converged at TIME = 12.3252

 Network not converged at TIME = 12.3302

 Network not converged at TIME = 12.3352

 Network not converged at TIME = 12.3402

 Network not converged at TIME = 12.3452

 Network not converged at TIME = 12.3502

 Network not converged at TIME = 12.3552

 Network not converged at TIME = 12.3602

 Network not converged at TIME = 12.3652

 Network not converged at TIME = 12.3702

 Network not converged at TIME = 12.3752

 Network not converged at TIME = 12.3802

 Network not converged at TIME = 12.3852

 Network not converged at TIME = 12.3902

 Network not converged at TIME = 12.3952

 Network not converged at TIME = 12.4002

 Network not converged at TIME = 12.4052

 Network not converged at TIME = 12.4102

 Network not converged at TIME = 12.4152

 Network not converged at TIME = 12.4202

 Network not converged at TIME = 12.4252

 Network not converged at TIME = 12.4302

 Network not converged at TIME = 12.4352

 Network not converged at TIME = 12.4402

 Network not converged at TIME = 12.4452

 Network not converged at TIME = 12.4502

 Network not converged at TIME = 12.4552

 Network not converged at TIME = 12.4602

 Network not converged at TIME = 12.4652

 Network not converged at TIME = 12.4702

 Network not converged at TIME = 12.4752

...